data_1
_audit_creation_method   'Generated by vasp2cif'
_cell_length_a    5.7251
_cell_length_b    4.2390
_cell_length_c    8.3929
_cell_angle_alpha    90.00
_cell_angle_beta    89.98
_cell_angle_gamma    90.00

_symmetry_space_group_name_H-M    'P 1'
loop_
_atom_site_label
_atom_site_type_symbol
_atom_site_fract_x
_atom_site_fract_y
_atom_site_fract_z
_atom_site_U_iso_or_equiv
_atom_site_adp_type
_atom_site_occupancy
In1   In   0.8222   0.2500   0.3989  0.00000  Uiso   1.0
In2   In   0.1785   0.7500   0.6004  0.00000  Uiso   1.0
In3   In   0.6782   0.7500   0.8992  0.00000  Uiso   1.0
In4   In   0.3219   0.2500   0.1004  0.00000  Uiso   1.0
Pd5   Pd   0.8426   0.2500   0.0720  0.00000  Uiso   1.0
Pd6   Pd   0.1575   0.7500   0.9274  0.00000  Uiso   1.0
Pd7   Pd   0.6578   0.7500   0.5721  0.00000  Uiso   1.0
Pd8   Pd   0.3429   0.2500   0.4275  0.00000  Uiso   1.0
Pd9   Pd   0.9322   0.2500   0.7299  0.00000  Uiso   1.0
Pd10   Pd   0.0677   0.7500   0.2695  0.00000  Uiso   1.0
Pd11   Pd   0.5678   0.7500   0.2302  0.00000  Uiso   1.0
Pd12   Pd   0.4325   0.2500   0.7694  0.00000  Uiso   1.0


